<configuration>
    <input>
        <net-file value="quickstart.net.xml"/>
        <route-files value="quickstart.rou.xml"/>
    </input>
    <time>
        <begin value="54000"/>
        <end value="54900"/>
    </time>
    <time-to-teleport value="-1"/>
</configuration>